Circuit: * C:\Users\jcala\Google Drive\Electrocardiograma\Circuito\Tests Ltspice\PasoBajo.asc

Direct Newton iteration for .op point succeeded.
